
OS:Version,
  {9e8245db-e0b0-4782-8100-9f2992cd0c78}, !- Handle
  3.6.1;                                  !- Version Identifier

OS:Schedule:Constant,
  {90dea151-b76b-4823-80c7-020c8e1a27df}, !- Handle
  Always On Discrete,                     !- Name
  {64564823-3fb2-4c63-9fb4-22a19a6007be}, !- Schedule Type Limits Name
  1;                                      !- Value

OS:ScheduleTypeLimits,
  {64564823-3fb2-4c63-9fb4-22a19a6007be}, !- Handle
  Always On Discrete Limits,              !- Name
  0,                                      !- Lower Limit Value
  1,                                      !- Upper Limit Value
  Discrete,                               !- Numeric Type
  Availability;                           !- Unit Type

OS:Building,
  {161a51f0-9700-4aa1-8ba8-f2513d0eecae}, !- Handle
  -College-ASHRAE 169-2013-2A created: 2023-09-08 18:26:06 +0800, !- Name
  ,                                       !- Building Sector Type
  ,                                       !- North Axis {deg}
  ,                                       !- Nominal Floor to Floor Height {m}
  ,                                       !- Space Type Name
  {74f2beb8-71c5-4aee-b7cb-4597a69db11e}, !- Default Construction Set Name
  ,                                       !- Default Schedule Set Name
  4,                                      !- Standards Number of Stories
  4,                                      !- Standards Number of Above Ground Stories
  ,                                       !- Standards Template
  College,                                !- Standards Building Type
  ,                                       !- Standards Number of Living Units
  ,                                       !- Relocatable
  ;                                       !- Nominal Floor to Ceiling Height {m}

OS:Site,
  {67954095-e568-4057-a467-6d726fa7832a}, !- Handle
  Tampa-MacDill AFB_FL_USA,               !- Name
  27.85,                                  !- Latitude {deg}
  -82.52,                                 !- Longitude {deg}
  -5,                                     !- Time Zone {hr}
  8,                                      !- Elevation {m}
  City;                                   !- Terrain

OS:YearDescription,
  {ced9d852-3dbd-4e6c-ade7-1e572711c3f2}, !- Handle
  ,                                       !- Calendar Year
  Sunday;                                 !- Day of Week for Start Day

OS:ClimateZones,
  {f9298a12-fa75-446c-a6a6-301b9e4dc7b8}, !- Handle
  ASHRAE,                                 !- Climate Zone Institution Name 1
  ANSI/ASHRAE Standard 169,               !- Climate Zone Document Name 1
  2006,                                   !- Climate Zone Document Year 1
  2A,                                     !- Climate Zone Value 1
  CEC,                                    !- Climate Zone Institution Name 2
  California Climate Zone Descriptions,   !- Climate Zone Document Name 2
  1995,                                   !- Climate Zone Document Year 2
  ;                                       !- Climate Zone Value 2

OS:LifeCycleCost:Parameters,
  {fb618376-732f-4376-831c-e5bee8e3ceba}, !- Handle
  FEMP,                                   !- Analysis Type
  ,                                       !- Discounting Convention
  ,                                       !- Inflation Approach
  ,                                       !- Real Discount Rate
  ,                                       !- Nominal Discount Rate
  ,                                       !- Inflation
  ,                                       !- Base Date Month
  ,                                       !- Base Date Year
  ,                                       !- Service Date Month
  ,                                       !- Service Date Year
  ,                                       !- Length of Study Period in Years
  ,                                       !- Tax Rate
  ,                                       !- Depreciation Method
  Yes;                                    !- Use NIST Fuel Escalation Rates

OS:Facility,
  {67aa9559-41cc-4015-a2b3-ee95a9bcd8ad}; !- Handle

OS:BuildingStory,
  {f44517e4-6e99-4739-994b-ef5108639c9a}, !- Handle
  Building Story 1,                       !- Name
  0,                                      !- Nominal Z Coordinate {m}
  3.9624,                                 !- Nominal Floor to Floor Height {m}
  ,                                       !- Default Construction Set Name
  ,                                       !- Default Schedule Set Name
  {b157e336-f31e-4729-b292-34cdb794b1d0}, !- Group Rendering Name
  ;                                       !- Nominal Floor to Ceiling Height {m}

OS:Space,
  {ccf9f6b7-4548-4c43-a4ff-29f83f176a6a}, !- Handle
  CB_CAFE_STUDY_LOUNGE_F1,                !- Name
  {1e3618f5-24e9-4f84-850a-f401ea2ab563}, !- Space Type Name
  ,                                       !- Default Construction Set Name
  ,                                       !- Default Schedule Set Name
  -0,                                     !- Direction of Relative North {deg}
  0,                                      !- X Origin {m}
  37.7952,                                !- Y Origin {m}
  0,                                      !- Z Origin {m}
  {f44517e4-6e99-4739-994b-ef5108639c9a}, !- Building Story Name
  {fe69607f-fcdd-4c83-b3af-8e5400c988cb}, !- Thermal Zone Name
  ,                                       !- Part of Total Floor Area
  ,                                       !- Design Specification Outdoor Air Object Name
  ;                                       !- Building Unit Name

OS:Surface,
  {d569c20d-c505-4b04-8ac3-3c3ee7eda933}, !- Handle
  Surface 2,                              !- Name
  Wall,                                   !- Surface Type
  ,                                       !- Construction Name
  {ccf9f6b7-4548-4c43-a4ff-29f83f176a6a}, !- Space Name
  Surface,                                !- Outside Boundary Condition
  {5d49bc0e-6e31-44d9-9a69-6a220b89833e}, !- Outside Boundary Condition Object
  NoSun,                                  !- Sun Exposure
  NoWind,                                 !- Wind Exposure
  ,                                       !- View Factor to Ground
  ,                                       !- Number of Vertices
  5.4864, 0, 3.9624,                      !- X,Y,Z Vertex 1 {m}
  5.4864, 0, 0,                           !- X,Y,Z Vertex 2 {m}
  0, 0, 0,                                !- X,Y,Z Vertex 3 {m}
  0, 0, 3.9624;                           !- X,Y,Z Vertex 4 {m}

OS:Surface,
  {e8d1b8f5-d4b8-4cb1-aca6-af5319df21c8}, !- Handle
  Surface 3,                              !- Name
  Wall,                                   !- Surface Type
  ,                                       !- Construction Name
  {ccf9f6b7-4548-4c43-a4ff-29f83f176a6a}, !- Space Name
  Surface,                                !- Outside Boundary Condition
  {d6062353-a495-49e7-820f-2958e58529b3}, !- Outside Boundary Condition Object
  NoSun,                                  !- Sun Exposure
  NoWind,                                 !- Wind Exposure
  ,                                       !- View Factor to Ground
  ,                                       !- Number of Vertices
  5.4864, 2.286, 3.9624,                  !- X,Y,Z Vertex 1 {m}
  5.4864, 2.286, 0,                       !- X,Y,Z Vertex 2 {m}
  5.4864, 0, 0,                           !- X,Y,Z Vertex 3 {m}
  5.4864, 0, 3.9624;                      !- X,Y,Z Vertex 4 {m}

OS:Surface,
  {3f52963e-e5a8-47a0-8b55-7b31a60ee015}, !- Handle
  Surface 4,                              !- Name
  Wall,                                   !- Surface Type
  ,                                       !- Construction Name
  {ccf9f6b7-4548-4c43-a4ff-29f83f176a6a}, !- Space Name
  Surface,                                !- Outside Boundary Condition
  {b9c0db06-f5f3-4d0b-a670-b27d5ad65dd2}, !- Outside Boundary Condition Object
  NoSun,                                  !- Sun Exposure
  NoWind,                                 !- Wind Exposure
  ,                                       !- View Factor to Ground
  ,                                       !- Number of Vertices
  18.288, 2.286, 3.9624,                  !- X,Y,Z Vertex 1 {m}
  18.288, 2.286, 0,                       !- X,Y,Z Vertex 2 {m}
  5.4864, 2.286, 0,                       !- X,Y,Z Vertex 3 {m}
  5.4864, 2.286, 3.9624;                  !- X,Y,Z Vertex 4 {m}

OS:Surface,
  {923b2c6a-079a-4674-947b-ee810f324a20}, !- Handle
  Surface 5,                              !- Name
  Wall,                                   !- Surface Type
  ,                                       !- Construction Name
  {ccf9f6b7-4548-4c43-a4ff-29f83f176a6a}, !- Space Name
  Surface,                                !- Outside Boundary Condition
  {49287f26-09a0-4459-a04a-e7bfaca96a62}, !- Outside Boundary Condition Object
  NoSun,                                  !- Sun Exposure
  NoWind,                                 !- Wind Exposure
  ,                                       !- View Factor to Ground
  ,                                       !- Number of Vertices
  18.288, -8.2296, 3.9624,                !- X,Y,Z Vertex 1 {m}
  18.288, -8.2296, 0,                     !- X,Y,Z Vertex 2 {m}
  18.288, 0, 0,                           !- X,Y,Z Vertex 3 {m}
  18.288, 0, 3.9624;                      !- X,Y,Z Vertex 4 {m}

OS:Surface,
  {137114b7-f755-4bbc-a0b7-9865cc34cad3}, !- Handle
  Surface 6,                              !- Name
  Wall,                                   !- Surface Type
  ,                                       !- Construction Name
  {ccf9f6b7-4548-4c43-a4ff-29f83f176a6a}, !- Space Name
  Outdoors,                               !- Outside Boundary Condition
  ,                                       !- Outside Boundary Condition Object
  SunExposed,                             !- Sun Exposure
  WindExposed,                            !- Wind Exposure
  ,                                       !- View Factor to Ground
  ,                                       !- Number of Vertices
  0, -8.2296, 3.9624,                     !- X,Y,Z Vertex 1 {m}
  0, -8.2296, 0,                          !- X,Y,Z Vertex 2 {m}
  18.288, -8.2296, 0,                     !- X,Y,Z Vertex 3 {m}
  18.288, -8.2296, 3.9624;                !- X,Y,Z Vertex 4 {m}

OS:Surface,
  {a32fa24f-0fd7-45be-83cd-a004ecf68dcb}, !- Handle
  Surface 7,                              !- Name
  Wall,                                   !- Surface Type
  ,                                       !- Construction Name
  {ccf9f6b7-4548-4c43-a4ff-29f83f176a6a}, !- Space Name
  Outdoors,                               !- Outside Boundary Condition
  ,                                       !- Outside Boundary Condition Object
  SunExposed,                             !- Sun Exposure
  WindExposed,                            !- Wind Exposure
  ,                                       !- View Factor to Ground
  ,                                       !- Number of Vertices
  0, 0, 3.9624,                           !- X,Y,Z Vertex 1 {m}
  0, 0, 0,                                !- X,Y,Z Vertex 2 {m}
  0, -8.2296, 0,                          !- X,Y,Z Vertex 3 {m}
  0, -8.2296, 3.9624;                     !- X,Y,Z Vertex 4 {m}

OS:Surface,
  {2d1192f9-b016-4c0f-9d35-53c04a216e83}, !- Handle
  Surface 8,                              !- Name
  RoofCeiling,                            !- Surface Type
  ,                                       !- Construction Name
  {ccf9f6b7-4548-4c43-a4ff-29f83f176a6a}, !- Space Name
  Surface,                                !- Outside Boundary Condition
  {d5cd9f00-78d5-441b-ac8d-efda70daeece}, !- Outside Boundary Condition Object
  NoSun,                                  !- Sun Exposure
  NoWind,                                 !- Wind Exposure
  ,                                       !- View Factor to Ground
  ,                                       !- Number of Vertices
  18.288, 0, 3.9624,                      !- X,Y,Z Vertex 1 {m}
  18.288, 2.286, 3.9624,                  !- X,Y,Z Vertex 2 {m}
  5.4864, 2.286, 3.9624,                  !- X,Y,Z Vertex 3 {m}
  5.4864, 0, 3.9624;                      !- X,Y,Z Vertex 4 {m}

OS:Space,
  {94cda0a2-6824-46bd-bc8e-48258d6ec305}, !- Handle
  CB_CORRIDOR_F1,                         !- Name
  {51bdfc1e-7c26-4cee-a4ca-0297bf0b8ba6}, !- Space Type Name
  ,                                       !- Default Construction Set Name
  ,                                       !- Default Schedule Set Name
  -0,                                     !- Direction of Relative North {deg}
  18.288,                                 !- X Origin {m}
  29.5656,                                !- Y Origin {m}
  0,                                      !- Z Origin {m}
  {f44517e4-6e99-4739-994b-ef5108639c9a}, !- Building Story Name
  {02ef544f-e69d-417f-88eb-71ea47882953}, !- Thermal Zone Name
  ,                                       !- Part of Total Floor Area
  ,                                       !- Design Specification Outdoor Air Object Name
  ;                                       !- Building Unit Name

OS:Surface,
  {2ee2e0f7-123a-43eb-bcf0-ac49393ca27e}, !- Handle
  Surface 10,                             !- Name
  Wall,                                   !- Surface Type
  ,                                       !- Construction Name
  {94cda0a2-6824-46bd-bc8e-48258d6ec305}, !- Space Name
  Surface,                                !- Outside Boundary Condition
  {bfaad5d6-4b43-4d6e-ba57-5f5c0f3bb1a2}, !- Outside Boundary Condition Object
  NoSun,                                  !- Sun Exposure
  NoWind,                                 !- Wind Exposure
  ,                                       !- View Factor to Ground
  ,                                       !- Number of Vertices
  0, 10.5156, 3.9624,                     !- X,Y,Z Vertex 1 {m}
  0, 10.5156, 0,                          !- X,Y,Z Vertex 2 {m}
  0, 8.2296, 0,                           !- X,Y,Z Vertex 3 {m}
  0, 8.2296, 3.9624;                      !- X,Y,Z Vertex 4 {m}

OS:Surface,
  {7446d899-f687-4f94-9587-efa0ed0d5123}, !- Handle
  Surface 11,                             !- Name
  Wall,                                   !- Surface Type
  ,                                       !- Construction Name
  {94cda0a2-6824-46bd-bc8e-48258d6ec305}, !- Space Name
  Surface,                                !- Outside Boundary Condition
  {f8f54c11-76e3-4789-81d2-ef1c4a671bf7}, !- Outside Boundary Condition Object
  NoSun,                                  !- Sun Exposure
  NoWind,                                 !- Wind Exposure
  ,                                       !- View Factor to Ground
  ,                                       !- Number of Vertices
  9.144, 10.5156, 3.9624,                 !- X,Y,Z Vertex 1 {m}
  9.144, 10.5156, 0,                      !- X,Y,Z Vertex 2 {m}
  0, 10.5156, 0,                          !- X,Y,Z Vertex 3 {m}
  0, 10.5156, 3.9624;                     !- X,Y,Z Vertex 4 {m}

OS:Surface,
  {502424b0-0f6f-41e3-a94a-dbb3d4578794}, !- Handle
  Surface 12,                             !- Name
  Wall,                                   !- Surface Type
  ,                                       !- Construction Name
  {94cda0a2-6824-46bd-bc8e-48258d6ec305}, !- Space Name
  Surface,                                !- Outside Boundary Condition
  {f86c60b9-282f-428d-979c-b3d7ae6efdd6}, !- Outside Boundary Condition Object
  NoSun,                                  !- Sun Exposure
  NoWind,                                 !- Wind Exposure
  ,                                       !- View Factor to Ground
  ,                                       !- Number of Vertices
  15.24, 10.5156, 3.9624,                 !- X,Y,Z Vertex 1 {m}
  15.24, 10.5156, 0,                      !- X,Y,Z Vertex 2 {m}
  9.144, 10.5156, 0,                      !- X,Y,Z Vertex 3 {m}
  9.144, 10.5156, 3.9624;                 !- X,Y,Z Vertex 4 {m}

OS:Surface,
  {4760eec1-23b1-4fc1-ad82-c470d635cbac}, !- Handle
  Surface 13,                             !- Name
  Wall,                                   !- Surface Type
  ,                                       !- Construction Name
  {94cda0a2-6824-46bd-bc8e-48258d6ec305}, !- Space Name
  Surface,                                !- Outside Boundary Condition
  {7bd08615-fb68-4aa6-9c20-ac5e5931f8bc}, !- Outside Boundary Condition Object
  NoSun,                                  !- Sun Exposure
  NoWind,                                 !- Wind Exposure
  ,                                       !- View Factor to Ground
  ,                                       !- Number of Vertices
  19.2024, 10.5156, 3.9624,               !- X,Y,Z Vertex 1 {m}
  19.2024, 10.5156, 0,                    !- X,Y,Z Vertex 2 {m}
  15.24, 10.5156, 0,                      !- X,Y,Z Vertex 3 {m}
  15.24, 10.5156, 3.9624;                 !- X,Y,Z Vertex 4 {m}

OS:Surface,
  {b694ad2e-5d00-4ef2-809a-08a74b093e59}, !- Handle
  Surface 14,                             !- Name
  Wall,                                   !- Surface Type
  ,                                       !- Construction Name
  {94cda0a2-6824-46bd-bc8e-48258d6ec305}, !- Space Name
  Surface,                                !- Outside Boundary Condition
  {56ae49de-2e98-4268-83bf-db46b8cd10aa}, !- Outside Boundary Condition Object
  NoSun,                                  !- Sun Exposure
  NoWind,                                 !- Wind Exposure
  ,                                       !- View Factor to Ground
  ,                                       !- Number of Vertices
  23.0124, 10.5156, 3.9624,               !- X,Y,Z Vertex 1 {m}
  23.0124, 10.5156, 0,                    !- X,Y,Z Vertex 2 {m}
  19.2024, 10.5156, 0,                    !- X,Y,Z Vertex 3 {m}
  19.2024, 10.5156, 3.9624;               !- X,Y,Z Vertex 4 {m}

OS:Surface,
  {750afdad-49b8-4b4e-af26-4bf44c6c27ac}, !- Handle
  Surface 15,                             !- Name
  Wall,                                   !- Surface Type
  ,                                       !- Construction Name
  {94cda0a2-6824-46bd-bc8e-48258d6ec305}, !- Space Name
  Surface,                                !- Outside Boundary Condition
  {84923929-996b-47a8-b32a-e2d440777bbc}, !- Outside Boundary Condition Object
  NoSun,                                  !- Sun Exposure
  NoWind,                                 !- Wind Exposure
  ,                                       !- View Factor to Ground
  ,                                       !- Number of Vertices
  26.8224, 10.5156, 3.9624,               !- X,Y,Z Vertex 1 {m}
  26.8224, 10.5156, 0,                    !- X,Y,Z Vertex 2 {m}
  23.0124, 10.5156, 0,                    !- X,Y,Z Vertex 3 {m}
  23.0124, 10.5156, 3.9624;               !- X,Y,Z Vertex 4 {m}

OS:Surface,
  {850d7163-9f63-4215-bd74-60cc77935bc3}, !- Handle
  Surface 16,                             !- Name
  Wall,                                   !- Surface Type
  ,                                       !- Construction Name
  {94cda0a2-6824-46bd-bc8e-48258d6ec305}, !- Space Name
  Surface,                                !- Outside Boundary Condition
  {a86bdcf7-0bfa-467b-be3f-e0e2d7199a08}, !- Outside Boundary Condition Object
  NoSun,                                  !- Sun Exposure
  NoWind,                                 !- Wind Exposure
  ,                                       !- View Factor to Ground
  ,                                       !- Number of Vertices
  39.624, 10.5156, 3.9624,                !- X,Y,Z Vertex 1 {m}
  39.624, 10.5156, 0,                     !- X,Y,Z Vertex 2 {m}
  26.8224, 10.5156, 0,                    !- X,Y,Z Vertex 3 {m}
  26.8224, 10.5156, 3.9624;               !- X,Y,Z Vertex 4 {m}

OS:Surface,
  {db335f83-8e53-493f-aeb1-0fb5e5f88839}, !- Handle
  Surface 17,                             !- Name
  Wall,                                   !- Surface Type
  ,                                       !- Construction Name
  {94cda0a2-6824-46bd-bc8e-48258d6ec305}, !- Space Name
  Surface,                                !- Outside Boundary Condition
  {6b7897eb-cb99-4dc5-b91d-7c08014f5027}, !- Outside Boundary Condition Object
  NoSun,                                  !- Sun Exposure
  NoWind,                                 !- Wind Exposure
  ,                                       !- View Factor to Ground
  ,                                       !- Number of Vertices
  39.624, 8.2296, 3.9624,                 !- X,Y,Z Vertex 1 {m}
  39.624, 8.2296, 0,                      !- X,Y,Z Vertex 2 {m}
  39.624, 10.5156, 0,                     !- X,Y,Z Vertex 3 {m}
  39.624, 10.5156, 3.9624;                !- X,Y,Z Vertex 4 {m}

OS:Surface,
  {634fce0e-6a00-43ad-935d-8f09cce33f31}, !- Handle
  Surface 18,                             !- Name
  Wall,                                   !- Surface Type
  ,                                       !- Construction Name
  {94cda0a2-6824-46bd-bc8e-48258d6ec305}, !- Space Name
  Surface,                                !- Outside Boundary Condition
  {761ff4f0-34b9-4bbb-b388-679d1e165405}, !- Outside Boundary Condition Object
  NoSun,                                  !- Sun Exposure
  NoWind,                                 !- Wind Exposure
  ,                                       !- View Factor to Ground
  ,                                       !- Number of Vertices
  26.8224, 8.2296, 3.9624,                !- X,Y,Z Vertex 1 {m}
  26.8224, 8.2296, 0,                     !- X,Y,Z Vertex 2 {m}
  39.624, 8.2296, 0,                      !- X,Y,Z Vertex 3 {m}
  39.624, 8.2296, 3.9624;                 !- X,Y,Z Vertex 4 {m}

OS:Surface,
  {c7cb80b3-35a8-47e2-beaf-9026b9931ca6}, !- Handle
  Surface 19,                             !- Name
  Wall,                                   !- Surface Type
  ,                                       !- Construction Name
  {94cda0a2-6824-46bd-bc8e-48258d6ec305}, !- Space Name
  Surface,                                !- Outside Boundary Condition
  {425eefc1-143a-4de2-8a62-9170c1c8b2c1}, !- Outside Boundary Condition Object
  NoSun,                                  !- Sun Exposure
  NoWind,                                 !- Wind Exposure
  ,                                       !- View Factor to Ground
  ,                                       !- Number of Vertices
  17.6784, 8.2296, 3.9624,                !- X,Y,Z Vertex 1 {m}
  17.6784, 8.2296, 0,                     !- X,Y,Z Vertex 2 {m}
  26.8224, 8.2296, 0,                     !- X,Y,Z Vertex 3 {m}
  26.8224, 8.2296, 3.9624;                !- X,Y,Z Vertex 4 {m}

OS:Surface,
  {1e3e7524-ff09-480c-a4b7-0b507dd916a5}, !- Handle
  Surface 20,                             !- Name
  Wall,                                   !- Surface Type
  ,                                       !- Construction Name
  {94cda0a2-6824-46bd-bc8e-48258d6ec305}, !- Space Name
  Surface,                                !- Outside Boundary Condition
  {dafc4ef6-5ac1-4c03-bfd7-1b79e38df977}, !- Outside Boundary Condition Object
  NoSun,                                  !- Sun Exposure
  NoWind,                                 !- Wind Exposure
  ,                                       !- View Factor to Ground
  ,                                       !- Number of Vertices
  15.24, 8.2296, 3.9624,                  !- X,Y,Z Vertex 1 {m}
  15.24, 8.2296, 0,                       !- X,Y,Z Vertex 2 {m}
  17.6784, 8.2296, 0,                     !- X,Y,Z Vertex 3 {m}
  17.6784, 8.2296, 3.9624;                !- X,Y,Z Vertex 4 {m}

OS:Surface,
  {501a8ff8-5301-48e1-bf60-542b1e7844d7}, !- Handle
  Surface 21,                             !- Name
  Wall,                                   !- Surface Type
  ,                                       !- Construction Name
  {94cda0a2-6824-46bd-bc8e-48258d6ec305}, !- Space Name
  Surface,                                !- Outside Boundary Condition
  {7005f1af-8d35-4435-a3c2-74f2ef632d50}, !- Outside Boundary Condition Object
  NoSun,                                  !- Sun Exposure
  NoWind,                                 !- Wind Exposure
  ,                                       !- View Factor to Ground
  ,                                       !- Number of Vertices
  15.24, 4.8768, 3.9624,                  !- X,Y,Z Vertex 1 {m}
  15.24, 4.8768, 0,                       !- X,Y,Z Vertex 2 {m}
  15.24, 8.2296, 0,                       !- X,Y,Z Vertex 3 {m}
  15.24, 8.2296, 3.9624;                  !- X,Y,Z Vertex 4 {m}

OS:Surface,
  {8abaa364-56ff-4f31-82d7-a5acbc98e81d}, !- Handle
  Surface 22,                             !- Name
  Wall,                                   !- Surface Type
  ,                                       !- Construction Name
  {94cda0a2-6824-46bd-bc8e-48258d6ec305}, !- Space Name
  Surface,                                !- Outside Boundary Condition
  {56a8ba8b-2e18-46bd-ba9a-76b82b22479c}, !- Outside Boundary Condition Object
  NoSun,                                  !- Sun Exposure
  NoWind,                                 !- Wind Exposure
  ,                                       !- View Factor to Ground
  ,                                       !- Number of Vertices
  15.24, 0, 3.9624,                       !- X,Y,Z Vertex 1 {m}
  15.24, 0, 0,                            !- X,Y,Z Vertex 2 {m}
  15.24, 4.8768, 0,                       !- X,Y,Z Vertex 3 {m}
  15.24, 4.8768, 3.9624;                  !- X,Y,Z Vertex 4 {m}

OS:Surface,
  {4f2c2fca-f502-4e52-8016-1b99d1b856db}, !- Handle
  Surface 23,                             !- Name
  Wall,                                   !- Surface Type
  ,                                       !- Construction Name
  {94cda0a2-6824-46bd-bc8e-48258d6ec305}, !- Space Name
  Outdoors,                               !- Outside Boundary Condition
  ,                                       !- Outside Boundary Condition Object
  SunExposed,                             !- Sun Exposure
  WindExposed,                            !- Wind Exposure
  ,                                       !- View Factor to Ground
  ,                                       !- Number of Vertices
  12.192, 0, 3.9624,                      !- X,Y,Z Vertex 1 {m}
  12.192, 0, 0,                           !- X,Y,Z Vertex 2 {m}
  15.24, 0, 0,                            !- X,Y,Z Vertex 3 {m}
  15.24, 0, 3.9624;                       !- X,Y,Z Vertex 4 {m}

OS:Surface,
  {249447b4-85af-4eef-bbe1-562d4875fa9e}, !- Handle
  Surface 24,                             !- Name
  Wall,                                   !- Surface Type
  ,                                       !- Construction Name
  {94cda0a2-6824-46bd-bc8e-48258d6ec305}, !- Space Name
  Surface,                                !- Outside Boundary Condition
  {4921183d-5c33-4843-b96c-b4689b5b3a89}, !- Outside Boundary Condition Object
  NoSun,                                  !- Sun Exposure
  NoWind,                                 !- Wind Exposure
  ,                                       !- View Factor to Ground
  ,                                       !- Number of Vertices
  12.192, 6.096, 3.9624,                  !- X,Y,Z Vertex 1 {m}
  12.192, 6.096, 0,                       !- X,Y,Z Vertex 2 {m}
  12.192, 0, 0,                           !- X,Y,Z Vertex 3 {m}
  12.192, 0, 3.9624;                      !- X,Y,Z Vertex 4 {m}

OS:Surface,
  {c1682466-e43b-4630-bab1-f8be37e068b4}, !- Handle
  Surface 25,                             !- Name
  Wall,                                   !- Surface Type
  ,                                       !- Construction Name
  {94cda0a2-6824-46bd-bc8e-48258d6ec305}, !- Space Name
  Surface,                                !- Outside Boundary Condition
  {3a68577f-78e9-4954-9965-31f3c6d7934d}, !- Outside Boundary Condition Object
  NoSun,                                  !- Sun Exposure
  NoWind,                                 !- Wind Exposure
  ,                                       !- View Factor to Ground
  ,                                       !- Number of Vertices
  9.144, 6.096, 3.9624,                   !- X,Y,Z Vertex 1 {m}
  9.144, 6.096, 0,                        !- X,Y,Z Vertex 2 {m}
  12.192, 6.096, 0,                       !- X,Y,Z Vertex 3 {m}
  12.192, 6.096, 3.9624;                  !- X,Y,Z Vertex 4 {m}

OS:Space,
  {28d3b0e2-4c00-436f-beb4-2416b6bbf1bf}, !- Handle
  CB_MAIN_STAIRS_F1,                      !- Name
  {f4a7791c-d241-41ec-ba73-acb404873502}, !- Space Type Name
  ,                                       !- Default Construction Set Name
  ,                                       !- Default Schedule Set Name
  -0,                                     !- Direction of Relative North {deg}
  27.432,                                 !- X Origin {m}
  29.5656,                                !- Y Origin {m}
  0,                                      !- Z Origin {m}
  {f44517e4-6e99-4739-994b-ef5108639c9a}, !- Building Story Name
  {c600f3cf-0ce7-41fb-bad0-96c3da9b00f9}, !- Thermal Zone Name
  ,                                       !- Part of Total Floor Area
  ,                                       !- Design Specification Outdoor Air Object Name
  ;                                       !- Building Unit Name

OS:Surface,
  {daeb1a75-6c91-4b01-85b1-7e9bf7c108a9}, !- Handle
  Surface 29,                             !- Name
  Floor,                                  !- Surface Type
  {b13607d9-dd3e-4238-90cb-59701b7bdf4d}, !- Construction Name
  {28d3b0e2-4c00-436f-beb4-2416b6bbf1bf}, !- Space Name
  GroundFCfactorMethod,                   !- Outside Boundary Condition
  ,                                       !- Outside Boundary Condition Object
  NoSun,                                  !- Sun Exposure
  NoWind,                                 !- Wind Exposure
  ,                                       !- View Factor to Ground
  ,                                       !- Number of Vertices
  3.048, 6.096, 0,                        !- X,Y,Z Vertex 1 {m}