
Version,
  23.1;                                   !- Version Identifier

Timestep,
  6;                                      !- Number of Timesteps per Hour

LifeCycleCost:Parameters,
  Life Cycle Cost Parameters,             !- Name
  EndOfYear,                              !- Discounting Convention
  ConstantDollar,                         !- Inflation Approach
  0.03,                                   !- Real Discount Rate
  ,                                       !- Nominal Discount Rate
  ,                                       !- Inflation
  ,                                       !- Base Date Month
  2011,                                   !- Base Date Year
  ,                                       !- Service Date Month
  2011,                                   !- Service Date Year
  25,                                     !- Length of Study Period in Years
  ,                                       !- Tax rate
  None;                                   !- Depreciation Method

LifeCycleCost:UsePriceEscalation,
  U.S. Avg  Commercial-Electricity,       !- Name
  Electricity,                            !- Resource
  2011,                                   !- Escalation Start Year
  January,                                !- Escalation Start Month
  0.9838,                                 !- Year Escalation 1
  0.9730,                                 !- Year Escalation 2
  0.9632,                                 !- Year Escalation 3
  0.9611,                                 !- Year Escalation 4
  0.9571,                                 !- Year Escalation 5
  0.9553,                                 !- Year Escalation 6
  0.9539,                                 !- Year Escalation 7
  0.9521,                                 !- Year Escalation 8
  0.9546,                                 !- Year Escalation 9
  0.9550,                                 !- Year Escalation 10
  0.9553,                                 !- Year Escalation 11
  0.9564,                                 !- Year Escalation 12
  0.9575,                                 !- Year Escalation 13
  0.9596,                                 !- Year Escalation 14
  0.9618,                                 !- Year Escalation 15
  0.9614,                                 !- Year Escalation 16
  0.9618,                                 !- Year Escalation 17
  0.9618,                                 !- Year Escalation 18
  0.9593,                                 !- Year Escalation 19
  0.9589,                                 !- Year Escalation 20
  0.9607,                                 !- Year Escalation 21
  0.9625,                                 !- Year Escalation 22
  0.9650,                                 !- Year Escalation 23
  0.9708,                                 !- Year Escalation 24
  0.9751,                                 !- Year Escalation 25
  0.9762,                                 !- Year Escalation 26
  0.9766,                                 !- Year Escalation 27
  0.9766,                                 !- Year Escalation 28
  0.9769,                                 !- Year Escalation 29
  0.9773;                                 !- Year Escalation 30

LifeCycleCost:UsePriceEscalation,
  U.S. Avg  Commercial-Distillate Oil,    !- Name
  FuelOilNo1,                             !- Resource
  2011,                                   !- Escalation Start Year
  January,                                !- Escalation Start Month
  0.9714,                                 !- Year Escalation 1
  0.9730,                                 !- Year Escalation 2
  0.9942,                                 !- Year Escalation 3
  1.0164,                                 !- Year Escalation 4
  1.0541,                                 !- Year Escalation 5
  1.0928,                                 !- Year Escalation 6
  1.1267,                                 !- Year Escalation 7
  1.1580,                                 !- Year Escalation 8
  1.1792,                                 !- Year Escalation 9
  1.1967,                                 !- Year Escalation 10
  1.2200,                                 !- Year Escalation 11
  1.2333,                                 !- Year Escalation 12
  1.2566,                                 !- Year Escalation 13
  1.2709,                                 !- Year Escalation 14
  1.2826,                                 !- Year Escalation 15
  1.2985,                                 !- Year Escalation 16
  1.3102,                                 !- Year Escalation 17
  1.3250,                                 !- Year Escalation 18
  1.3261,                                 !- Year Escalation 19
  1.3282,                                 !- Year Escalation 20
  1.3324,                                 !- Year Escalation 21
  1.3356,                                 !- Year Escalation 22
  1.3431,                                 !- Year Escalation 23
  1.3510,                                 !- Year Escalation 24
  1.3568,                                 !- Year Escalation 25
  1.3606,                                 !- Year Escalation 26
  1.3637,                                 !- Year Escalation 27
  1.3674,                                 !- Year Escalation 28
  1.3706,                                 !- Year Escalation 29
  1.3743;                                 !- Year Escalation 30

LifeCycleCost:UsePriceEscalation,
  U.S. Avg  Commercial-Residual Oil,      !- Name
  FuelOilNo2,                             !- Resource
  2011,                                   !- Escalation Start Year
  January,                                !- Escalation Start Month
  0.8469,                                 !- Year Escalation 1
  0.8257,                                 !- Year Escalation 2
  0.8681,                                 !- Year Escalation 3
  0.8988,                                 !- Year Escalation 4
  0.9289,                                 !- Year Escalation 5
  0.9604,                                 !- Year Escalation 6
  0.9897,                                 !- Year Escalation 7
  1.0075,                                 !- Year Escalation 8
  1.0314,                                 !- Year Escalation 9
  1.0554,                                 !- Year Escalation 10
  1.0861,                                 !- Year Escalation 11
  1.1278,                                 !- Year Escalation 12
  1.1497,                                 !- Year Escalation 13
  1.1620,                                 !- Year Escalation 14
  1.1743,                                 !- Year Escalation 15
  1.1852,                                 !- Year Escalation 16
  1.1948,                                 !- Year Escalation 17
  1.2037,                                 !- Year Escalation 18
  1.2071,                                 !- Year Escalation 19
  1.2119,                                 !- Year Escalation 20
  1.2139,                                 !- Year Escalation 21
  1.2194,                                 !- Year Escalation 22
  1.2276,                                 !- Year Escalation 23
  1.2365,                                 !- Year Escalation 24
  1.2420,                                 !- Year Escalation 25
  1.2461,                                 !- Year Escalation 26
  1.2509,                                 !- Year Escalation 27
  1.2550,                                 !- Year Escalation 28
  1.2591,                                 !- Year Escalation 29
  1.2638;                                 !- Year Escalation 30

LifeCycleCost:UsePriceEscalation,
  U.S. Avg  Commercial-Natural gas,       !- Name
  NaturalGas,                             !- Resource
  2011,                                   !- Escalation Start Year
  January,                                !- Escalation Start Month
  0.9823,                                 !- Year Escalation 1
  0.9557,                                 !- Year Escalation 2
  0.9279,                                 !- Year Escalation 3
  0.9257,                                 !- Year Escalation 4
  0.9346,                                 !- Year Escalation 5
  0.9412,                                 !- Year Escalation 6
  0.9512,                                 !- Year Escalation 7
  0.9645,                                 !- Year Escalation 8
  0.9856,                                 !- Year Escalation 9
  1.0067,                                 !- Year Escalation 10
  1.0222,                                 !- Year Escalation 11
  1.0410,                                 !- Year Escalation 12
  1.0610,                                 !- Year Escalation 13
  1.0787,                                 !- Year Escalation 14
  1.0942,                                 !- Year Escalation 15
  1.1098,                                 !- Year Escalation 16
  1.1220,                                 !- Year Escalation 17
  1.1308,                                 !- Year Escalation 18
  1.1386,                                 !- Year Escalation 19
  1.1486,                                 !- Year Escalation 20
  1.1619,                                 !- Year Escalation 21
  1.1763,                                 !- Year Escalation 22
  1.1918,                                 !- Year Escalation 23
  1.2118,                                 !- Year Escalation 24
  1.2284,                                 !- Year Escalation 25
  1.2439,                                 !- Year Escalation 26
  1.2605,                                 !- Year Escalation 27
  1.2772,                                 !- Year Escalation 28
  1.2938,                                 !- Year Escalation 29
  1.3115;                                 !- Year Escalation 30

LifeCycleCost:UsePriceEscalation,
  U.S. Avg  Commercial-Coal,              !- Name
  Coal,                                   !- Resource
  2011,                                   !- Escalation Start Year
  January,                                !- Escalation Start Month
  0.9970,                                 !- Year Escalation 1
  1.0089,                                 !- Year Escalation 2
  1.0089,                                 !- Year Escalation 3
  0.9941,                                 !- Year Escalation 4
  0.9941,                                 !- Year Escalation 5
  1.0000,                                 !- Year Escalation 6
  1.0030,                                 !- Year Escalation 7
  1.0059,                                 !- Year Escalation 8
  1.0089,                                 !- Year Escalation 9
  1.0119,                                 !- Year Escalation 10
  1.0148,                                 !- Year Escalation 11
  1.0178,                                 !- Year Escalation 12
  1.0208,                                 !- Year Escalation 13
  1.0267,                                 !- Year Escalation 14
  1.0297,                                 !- Year Escalation 15
  1.0356,                                 !- Year Escalation 16
  1.0415,                                 !- Year Escalation 17
  1.0534,                                 !- Year Escalation 18
  1.0564,                                 !- Year Escalation 19
  1.0593,                                 !- Year Escalation 20
  1.0653,                                 !- Year Escalation 21
  1.0712,                                 !- Year Escalation 22
  1.0742,                                 !- Year Escalation 23
  1.0801,                                 !- Year Escalation 24
  1.0831,                                 !- Year Escalation 25
  1.0831,                                 !- Year Escalation 26
  1.0861,                                 !- Year Escalation 27
  1.0890,                                 !- Year Escalation 28
  1.0920,                                 !- Year Escalation 29
  1.0950;                                 !- Year Escalation 30

Building,
  -College-ASHRAE 169-2013-2A created: 2023-09-08 18:26:06 +0800, !- Name
  ,                                       !- North Axis {deg}
  City,                                   !- Terrain
  0.04,                                   !- Loads Convergence Tolerance Value {W}
  0.2,                                    !- Temperature Convergence Tolerance Value {deltaC}
  FullInteriorAndExterior,                !- Solar Distribution
  25,                                     !- Maximum Number of Warmup Days
  6;                                      !- Minimum Number of Warmup Days

Zone,
  CB_CAFE_STUDY_LOUNGE_F1 ZN,             !- Name
  -0,                                     !- Direction of Relative North {deg}
  0,                                      !- X Origin {m}
  37.7952,                                !- Y Origin {m}
  0,                                      !- Z Origin {m}
  ,                                       !- Type
  1,                                      !- Multiplier
  ,                                       !- Ceiling Height {m}
  ,                                       !- Volume {m3}
  ,                                       !- Floor Area {m2}
  ,                                       !- Zone Inside Convection Algorithm
  ,                                       !- Zone Outside Convection Algorithm
  Yes;                                    !- Part of Total Floor Area

Space,
  CB_CAFE_STUDY_LOUNGE_F1,                !- Name
  CB_CAFE_STUDY_LOUNGE_F1 ZN,             !- Zone Name
  ,                                       !- Ceiling Height {m}
  ,                                       !- Volume {m3}
  ,                                       !- Floor Area {m2}
  College - Lounge;                       !- Space Type

SpaceList,
  College - Lounge,                       !- Name
  CB_CAFE_STUDY_LOUNGE_F1;                !- Space Name 1

Lights,
  College - Lounge Lights,                !- Name
  College - Lounge,                       !- Zone or ZoneList or Space or SpaceList Name
  College BLDG_LIGHT_SCH,                 !- Schedule Name
  Watts/Area,                             !- Design Level Calculation Method
  ,                                       !- Lighting Level {W}
  6.35070714585874,                       !- Watts per Zone Floor Area {W/m2}
  ,                                       !- Watts per Person {W/person}
  ,                                       !- Return Air Fraction
  ,                                       !- Fraction Radiant
  ,                                       !- Fraction Visible
  0,                                      !- Fraction Replaceable
  General;                                !- End-Use Subcategory

ScheduleTypeLimits,
  Fractional,                             !- Name
  0,                                      !- Lower Limit Value {BasedOnField A3}
  1,                                      !- Upper Limit Value {BasedOnField A3}
  Continuous;                             !- Numeric Type

Schedule:Day:Interval,
  College BLDG_LIGHT_SCH Default|WntrDsn|Wknd|Hol Day, !- Name
  Fractional,                             !- Schedule Type Limits Name
  No,                                     !- Interpolate to Timestep
  24:00,                                  !- Time 1 {hh:mm}
  0.1773;                                 !- Value Until Time 1

Schedule:Day:Interval,
  College BLDG_LIGHT_SCH Wkdy|SmrDsn Day, !- Name
  Fractional,                             !- Schedule Type Limits Name
  No,                                     !- Interpolate to Timestep
  07:00,                                  !- Time 1 {hh:mm}
  0.1773,                                 !- Value Until Time 1
  21:00,                                  !- Time 2 {hh:mm}
  0.9,                                    !- Value Until Time 2
  24:00,                                  !- Time 3 {hh:mm}
  0.1773;                                 !- Value Until Time 3

Schedule:Day:Interval,
  College BLDG_LIGHT_SCH Default|WntrDsn|Wknd|Hol Day 1, !- Name
  Fractional,                             !- Schedule Type Limits Name
  No,                                     !- Interpolate to Timestep
  24:00,                                  !- Time 1 {hh:mm}
  0.1773;                                 !- Value Until Time 1

Schedule:Week:Daily,
  College BLDG_LIGHT_SCH Week Rule - Jan1-Jun24, !- Name
  College BLDG_LIGHT_SCH Default|WntrDsn|Wknd|Hol Day, !- Sunday Schedule:Day Name
  College BLDG_LIGHT_SCH Wkdy|SmrDsn Day, !- Monday Schedule:Day Name
  College BLDG_LIGHT_SCH Wkdy|SmrDsn Day, !- Tuesday Schedule:Day Name
  College BLDG_LIGHT_SCH Wkdy|SmrDsn Day, !- Wednesday Schedule:Day Name
  College BLDG_LIGHT_SCH Wkdy|SmrDsn Day, !- Thursday Schedule:Day Name
  College BLDG_LIGHT_SCH Wkdy|SmrDsn Day, !- Friday Schedule:Day Name
  College BLDG_LIGHT_SCH Default|WntrDsn|Wknd|Hol Day, !- Saturday Schedule:Day Name
  College BLDG_LIGHT_SCH Default,         !- Holiday Schedule:Day Name
  College BLDG_LIGHT_SCH Summer Design Day, !- SummerDesignDay Schedule:Day Name
  College BLDG_LIGHT_SCH Winter Design Day 2, !- WinterDesignDay Schedule:Day Name
  College BLDG_LIGHT_SCH Default,         !- CustomDay1 Schedule:Day Name
  College BLDG_LIGHT_SCH Default;         !- CustomDay2 Schedule:Day Name

Schedule:Day:Interval,
  College BLDG_LIGHT_SCH Wkdy|SmrDsn Day 1, !- Name
  Fractional,                             !- Schedule Type Limits Name
  No,                                     !- Interpolate to Timestep
  08:00,                                  !- Time 1 {hh:mm}
  0.1773,                                 !- Value Until Time 1
  20:00,                                  !- Time 2 {hh:mm}
  0.5,                                    !- Value Until Time 2
  24:00,                                  !- Time 3 {hh:mm}
  0.1773;                                 !- Value Until Time 3

Schedule:Week:Daily,
  College BLDG_LIGHT_SCH Week Rule - Jun25-Jul1, !- Name
  College BLDG_LIGHT_SCH Default|WntrDsn|Wknd|Hol Day, !- Sunday Schedule:Day Name
  College BLDG_LIGHT_SCH Wkdy|SmrDsn Day, !- Monday Schedule:Day Name
  College BLDG_LIGHT_SCH Wkdy|SmrDsn Day, !- Tuesday Schedule:Day Name
  College BLDG_LIGHT_SCH Wkdy|SmrDsn Day, !- Wednesday Schedule:Day Name
  College BLDG_LIGHT_SCH Wkdy|SmrDsn Day, !- Thursday Schedule:Day Name
  College BLDG_LIGHT_SCH Wkdy|SmrDsn Day, !- Friday Schedule:Day Name
  College BLDG_LIGHT_SCH Default|WntrDsn|Wknd|Hol Day 1, !- Saturday Schedule:Day Name
  College BLDG_LIGHT_SCH Default,         !- Holiday Schedule:Day Name
  College BLDG_LIGHT_SCH Summer Design Day, !- SummerDesignDay Schedule:Day Name
  College BLDG_LIGHT_SCH Winter Design Day 2, !- WinterDesignDay Schedule:Day Name
  College BLDG_LIGHT_SCH Default,         !- CustomDay1 Schedule:Day Name
  College BLDG_LIGHT_SCH Default;         !- CustomDay2 Schedule:Day Name

Schedule:Day:Interval,
  College BLDG_LIGHT_SCH Wkdy|SmrDsn Day 2, !- Name
  Fractional,                             !- Schedule Type Limits Name
  No,                                     !- Interpolate to Timestep
  07:00,                                  !- Time 1 {hh:mm}
  0.1773,                                 !- Value Until Time 1
  21:00,                                  !- Time 2 {hh:mm}
  0.9,                                    !- Value Until Time 2
  24:00,                                  !- Time 3 {hh:mm}
  0.1773;                                 !- Value Until Time 3

Schedule:Day:Interval,
  College BLDG_LIGHT_SCH Default|WntrDsn|Wknd|Hol Day 2, !- Name
  Fractional,                             !- Schedule Type Limits Name
  No,                                     !- Interpolate to Timestep
  24:00,                                  !- Time 1 {hh:mm}
  0.1773;                                 !- Value Until Time 1

Schedule:Week:Daily,
  College BLDG_LIGHT_SCH Week Rule - Jul2-Aug26, !- Name
  College BLDG_LIGHT_SCH Default|WntrDsn|Wknd|Hol Day 1, !- Sunday Schedule:Day Name
  College BLDG_LIGHT_SCH Wkdy|SmrDsn Day 1, !- Monday Schedule:Day Name
  College BLDG_LIGHT_SCH Wkdy|SmrDsn Day 1, !- Tuesday Schedule:Day Name
  College BLDG_LIGHT_SCH Wkdy|SmrDsn Day 1, !- Wednesday Schedule:Day Name
  College BLDG_LIGHT_SCH Wkdy|SmrDsn Day 1, !- Thursday Schedule:Day Name
  College BLDG_LIGHT_SCH Wkdy|SmrDsn Day 1, !- Friday Schedule:Day Name
  College BLDG_LIGHT_SCH Default|WntrDsn|Wknd|Hol Day 1, !- Saturday Schedule:Day Name
  College BLDG_LIGHT_SCH Default,         !- Holiday Schedule:Day Name
  College BLDG_LIGHT_SCH Summer Design Day, !- SummerDesignDay Schedule:Day Name
  College BLDG_LIGHT_SCH Winter Design Day 2, !- WinterDesignDay Schedule:Day Name
  College BLDG_LIGHT_SCH Default,         !- CustomDay1 Schedule:Day Name
  College BLDG_LIGHT_SCH Default;         !- CustomDay2 Schedule:Day Name

Schedule:Week:Daily,
  College BLDG_LIGHT_SCH Week Rule - Aug27-Sep2, !- Name
  College BLDG_LIGHT_SCH Default|WntrDsn|Wknd|Hol Day 1, !- Sunday Schedule:Day Name
  College BLDG_LIGHT_SCH Wkdy|SmrDsn Day 1, !- Monday Schedule:Day Name
  College BLDG_LIGHT_SCH Wkdy|SmrDsn Day 1, !- Tuesday Schedule:Day Name
  College BLDG_LIGHT_SCH Wkdy|SmrDsn Day 1, !- Wednesday Schedule:Day Name
  College BLDG_LIGHT_SCH Wkdy|SmrDsn Day 1, !- Thursday Schedule:Day Name
  College BLDG_LIGHT_SCH Wkdy|SmrDsn Day 2, !- Friday Schedule:Day Name
  College BLDG_LIGHT_SCH Default|WntrDsn|Wknd|Hol Day 2, !- Saturday Schedule:Day Name
  College BLDG_LIGHT_SCH Default,         !- Holiday Schedule:Day Name
  College BLDG_LIGHT_SCH Summer Design Day, !- SummerDesignDay Schedule:Day Name
  College BLDG_LIGHT_SCH Winter Design Day 2, !- WinterDesignDay Schedule:Day Name
  College BLDG_LIGHT_SCH Default,         !- CustomDay1 Schedule:Day Name
  College BLDG_LIGHT_SCH Default;         !- CustomDay2 Schedule:Day Name

Schedule:Week:Daily,
  College BLDG_LIGHT_SCH Week Rule - Sep3-Dec31, !- Name
  College BLDG_LIGHT_SCH Default|WntrDsn|Wknd|Hol Day 2, !- Sunday Schedule:Day Name
  College BLDG_LIGHT_SCH Wkdy|SmrDsn Day 2, !- Monday Schedule:Day Name
  College BLDG_LIGHT_SCH Wkdy|SmrDsn Day 2, !- Tuesday Schedule:Day Name
  College BLDG_LIGHT_SCH Wkdy|SmrDsn Day 2, !- Wednesday Schedule:Day Name
  College BLDG_LIGHT_SCH Wkdy|SmrDsn Day 2, !- Thursday Schedule:Day Name
  College BLDG_LIGHT_SCH Wkdy|SmrDsn Day 2, !- Friday Schedule:Day Name
  College BLDG_LIGHT_SCH Default|WntrDsn|Wknd|Hol Day 2, !- Saturday Schedule:Day Name
  College BLDG_LIGHT_SCH Default,         !- Holiday Schedule:Day Name
  College BLDG_LIGHT_SCH Summer Design Day, !- SummerDesignDay Schedule:Day Name
  College BLDG_LIGHT_SCH Winter Design Day 2, !- WinterDesignDay Schedule:Day Name
  College BLDG_LIGHT_SCH Default,         !- CustomDay1 Schedule:Day Name
  College BLDG_LIGHT_SCH Default;         !- CustomDay2 Schedule:Day Name

Schedule:Year,
  College BLDG_LIGHT_SCH,                 !- Name
  Fractional,                             !- Schedule Type Limits Name
  College BLDG_LIGHT_SCH Week Rule - Jan1-Jun24, !- Schedule:Week Name 1
  1,                                      !- Start Month 1
  1,                                      !- Start Day 1
  6,                                      !- End Month 1
  24,                                     !- End Day 1
  College BLDG_LIGHT_SCH Week Rule - Jun25-Jul1, !- Schedule:Week Name 2
  6,                                      !- Start Month 2
  25,                                     !- Start Day 2
  7,                                      !- End Month 2
  1,                                      !- End Day 2
  College BLDG_LIGHT_SCH Week Rule - Jul2-Aug26, !- Schedule:Week Name 3
  7,                                      !- Start Month 3
  2,                                      !- Start Day 3
  8,                                      !- End Month 3
  26,                                     !- End Day 3
  College BLDG_LIGHT_SCH Week Rule - Aug27-Sep2, !- Schedule:Week Name 4
  8,                                      !- Start Month 4
  27,                                     !- Start Day 4
  9,                                      !- End Month 4
  2,                                      !- End Day 4
  College BLDG_LIGHT_SCH Week Rule - Sep3-Dec31, !- Schedule:Week Name 5
  9,                                      !- Start Month 5
  3,                                      !- Start Day 5
  12,                                     !- End Month 5
  31;                                     !- End Day 5

Schedule:Day:Interval,
  College BLDG_LIGHT_SCH Default,         !- Name
  Fractional,                             !- Schedule Type Limits Name
  No,                                     !- Interpolate to Timestep
  24:00,                                  !- Time 1 {hh:mm}
  0.1773;                                 !- Value Until Time 1

Schedule:Day:Interval,
  College BLDG_LIGHT_SCH Summer Design Day, !- Name
  Fractional,                             !- Schedule Type Limits Name
  No,                                     !- Interpolate to Timestep
  07:00,                                  !- Time 1 {hh:mm}
  0.1773,                                 !- Value Until Time 1
  21:00,                                  !- Time 2 {hh:mm}
  0.9,                                    !- Value Until Time 2
  24:00,                                  !- Time 3 {hh:mm}
  0.1773;                                 !- Value Until Time 3

Schedule:Day:Interval,
  College BLDG_LIGHT_SCH Winter Design Day 2, !- Name
  Fractional,                             !- Schedule Type Limits Name
  No,                                     !- Interpolate to Timestep
  24:00,                                  !- Time 1 {hh:mm}
  0.1773;                                 !- Value Until Time 1

People,
  College - Lounge People,                !- Name
  College - Lounge,                       !- Zone or ZoneList or Space or SpaceList Name
  College BLDG_Cafe_OCC_SCH,              !- Number of People Schedule Name
  People/Area,                            !- Number of People Calculation Method
  ,                                       !- Number of People
  0.269097760417743,                      !- People per Floor Area {person/m2}
  ,                                       !- Floor Area per Person {m2/person}
  0.3,                                    !- Fraction Radiant
  ,                                       !- Sensible Heat Fraction
  College ACTIVITY_SCH,                   !- Activity Level Schedule Name
  ,                                       !- Carbon Dioxide Generation Rate {m3/s-W}
  ,                                       !- Enable ASHRAE 55 Comfort Warnings
  ,                                       !- Mean Radiant Temperature Calculation Type
  ,                                       !- Surface Name/Angle Factor List Name
  Work Efficiency Schedule,               !- Work Efficiency Schedule Name
  ,                                       !- Clothing Insulation Calculation Method
  ,                                       !- Clothing Insulation Calculation Method Schedule Name
  Clothing Schedule,                      !- Clothing Insulation Schedule Name
  Air Velocity Schedule;                  !- Air Velocity Schedule Name

Schedule:Day:Interval,
  College BLDG_Cafe_OCC_SCH Default|WntrDsn|Wknd|Hol Day, !- Name
  Fractional,                             !- Schedule Type Limits Name
  No,                                     !- Interpolate to Timestep
  24:00,                                  !- Time 1 {hh:mm}
  0;                                      !- Value Until Time 1

Schedule:Day:Interval,
  College BLDG_Cafe_OCC_SCH Wkdy|SmrDsn Day, !- Name
  Fractional,                             !- Schedule Type Limits Name
  No,                                     !- Interpolate to Timestep
  09:00,                                  !- Time 1 {hh:mm}
  0,                                      !- Value Until Time 1
  15:00,                                  !- Time 2 {hh:mm}
  0.95,                                   !- Value Until Time 2
  20:00,                                  !- Time 3 {hh:mm}
  0.35,                                   !- Value Until Time 3
  24:00,                                  !- Time 4 {hh:mm}
  0;                                      !- Value Until Time 4

Schedule:Day:Interval,
  College BLDG_Cafe_OCC_SCH Wkdy|SmrDsn Day 1, !- Name
  Fractional,                             !- Schedule Type Limits Name
  No,                                     !- Interpolate to Timestep
  09:00,                                  !- Time 1 {hh:mm}
  0,                                      !- Value Until Time 1
  15:00,                                  !- Time 2 {hh:mm}
  0.15,                                   !- Value Until Time 2
  20:00,                                  !- Time 3 {hh:mm}
  0.35,                                   !- Value Until Time 3
  24:00,                                  !- Time 4 {hh:mm}
  0;                                      !- Value Until Time 4

Schedule:Day:Interval,
  College BLDG_Cafe_OCC_SCH Default|WntrDsn|Wknd|Hol Day 1, !- Name
  Fractional,                             !- Schedule Type Limits Name
  No,                                     !- Interpolate to Timestep
  24:00,                                  !- Time 1 {hh:mm}
  0;                                      !- Value Until Time 1

Schedule:Week:Daily,
  College BLDG_Cafe_OCC_SCH Week Rule - Jan1-May27, !- Name
  College BLDG_Cafe_OCC_SCH Default|WntrDsn|Wknd|Hol Day, !- Sunday Schedule:Day Name
  College BLDG_Cafe_OCC_SCH Wkdy|SmrDsn Day, !- Monday Schedule:Day Name
  College BLDG_Cafe_OCC_SCH Wkdy|SmrDsn Day, !- Tuesday Schedule:Day Name
  College BLDG_Cafe_OCC_SCH Wkdy|SmrDsn Day, !- Wednesday Schedule:Day Name
  College BLDG_Cafe_OCC_SCH Wkdy|SmrDsn Day, !- Thursday Schedule:Day Name
  College BLDG_Cafe_OCC_SCH Wkdy|SmrDsn Day, !- Friday Schedule:Day Name
  College BLDG_Cafe_OCC_SCH Default|WntrDsn|Wknd|Hol Day, !- Saturday Schedule:Day Name
  College BLDG_Cafe_OCC_SCH Default,      !- Holiday Schedule:Day Name